LAMMPS (19 Jul 2019)
#------------------------Start of the Control information------------------------#
clear
units metal
newton on
timestep 1e-05
#-------------------------End of the Control information-------------------------#
#-----------------------Start of the Structure information-----------------------#
box tilt small
dimension 3
boundary p p p
atom_style atomic
read_data temp.structure
  triclinic box = (0 0 0) to (3.6 3.6 3.6) with tilt (0 0 0)
  reading atoms ...
  4 atoms
#------------------------End of the Structure information------------------------#
#-------------------------Start of Potential information-------------------------#
pair_style eam/alloy
pair_coeff * * EAM_WCo.txt Co
#--------------------------End of Potential information--------------------------#
#--------------------------Start of the Fix information--------------------------#
fix box_relax_all_aiida all box/relax iso 0.0 vmax 0.001
#---------------------------End of the Fix information---------------------------#
#------------------------Start of the Compute information------------------------#
compute pe_atom_all_aiida all pe/atom
compute ke_atom_all_aiida all ke/atom
compute stress_atom_all_aiida all stress/atom NULL
compute pressure_all_aiida all pressure thermo_temp
#-------------------------End of the Compute information-------------------------#
#------------------------Start of the Thermo information-------------------------#
thermo_style custom step pe ke press pxx pyy pzz etotal c_pressure_all_aiida c_pressure_all_aiida[1] c_pressure_all_aiida[2] c_pressure_all_aiida[3] c_pressure_all_aiida[4] c_pressure_all_aiida[5] c_pressure_all_aiida[6]
thermo 100
#-------------------------End of the Thermo information--------------------------#
#-------------------------Start of the Dump information--------------------------#
dump aiida all custom 1000 temp.dump id type element x y z c_pe_atom_all_aiida c_ke_atom_all_aiida c_stress_atom_all_aiida[1] c_stress_atom_all_aiida[2] c_stress_atom_all_aiida[3] c_stress_atom_all_aiida[4] c_stress_atom_all_aiida[5] c_stress_atom_all_aiida[6]
#--------------------------End of the Dump information---------------------------#
#--------------------------Start of the MD information---------------------------#
fix npt_all_aiida all npt temp 300 300 100  iso 0.0 0.0 1000.0
velocity all create 300 4261
reset_timestep 0
run_style verlet
run 5000
  update every 1 steps, delay 10 steps, check yes
Step PotEng KinEng Press Pxx Pyy Pzz TotEng c_pressure_all_aiida c_pressure_all_aiida[1] c_pressure_all_aiida[2] c_pressure_all_aiida[3] c_pressure_all_aiida[4] c_pressure_all_aiida[5] c_pressure_all_aiida[6]
0   -17.566918   0.11633413   -65748.203    -65784.86   -66151.806   -65307.943   -17.450584   -65748.203    -65784.86   -66151.806   -65307.943   -968.80346   -1835.8858   -293.61095
Averages over the last 26 of 51 rows, steps 2500 to 5000:
PotEng KinEng Press Pxx Pyy Pzz TotEng c_pressure_all_aiida c_pressure_all_aiida[1] c_pressure_all_aiida[2] c_pressure_all_aiida[3] c_pressure_all_aiida[4] c_pressure_all_aiida[5] c_pressure_all_aiida[6]
-17.4773 0.0267612 -57529.6 -53879.1 -60139.6 -58570 -17.4506 -57529.6 -53879.1 -60139.6 -58570 -2687.43 -5727.9 806.004
Loop time of 0.110005 on 1 procs for 5000 steps with 4 atoms

#---------------------------End of the MD information----------------------------#
#--------------------Start of the Final Variables information--------------------#
variable final_step equal step
variable final_pe equal pe
variable final_ke equal ke
variable final_press equal press
variable final_pxx equal pxx
variable final_pyy equal pyy
variable final_pzz equal pzz
variable final_etotal equal etotal
variable final_c_pressure_all_aiida equal c_pressure_all_aiida
variable final_c_pressure_all_aiida_1 equal c_pressure_all_aiida[1]
variable final_c_pressure_all_aiida_2 equal c_pressure_all_aiida[2]
variable final_c_pressure_all_aiida_3 equal c_pressure_all_aiida[3]
variable final_c_pressure_all_aiida_4 equal c_pressure_all_aiida[4]
variable final_c_pressure_all_aiida_5 equal c_pressure_all_aiida[5]
variable final_c_pressure_all_aiida_6 equal c_pressure_all_aiida[6]
#---------------------End of the Final Variables information---------------------#
#---------------Start of the Printing Final Variables information----------------#
print "#Final results" file aiida_lammps.yaml
#Final results
final_step: 5000
final_pe: -17.5141924945569
final_ke: 0.0636082860772328
final_press: -61353.82560727
final_pxx: -57340.4525179122
final_pyy: -63702.6536853082
final_pzz: -63018.3706185898
final_etotal: -17.4505842084796
final_c_pressure_all_aiida: -61353.82560727
final_c_pressure_all_aiida_1: -57340.4525179122
final_c_pressure_all_aiida_2: -63702.6536853082
final_c_pressure_all_aiida_3: -63018.3706185898
final_c_pressure_all_aiida_4: -1602.11196923013
final_c_pressure_all_aiida_5: -3438.00514080948
final_c_pressure_all_aiida_6: 873.607919841187
#----------------End of the Printing Final Variables information-----------------#
#---------------------Start of the write restart information---------------------#
write_restart restart.aiida
#----------------------End of the write restart information----------------------#
